33
3672
O         -4.44570       -1.00320        0.41130
O         -2.40050       -1.91140        0.05310
C          3.90240       -0.44110        0.03620
C          3.14860        0.81940       -0.43130
C          1.65280        0.73930       -0.24720
C         -1.09460        0.59350        0.09010
C         -2.57280        0.51520        0.27190
C          3.60760       -0.77600        1.50050
C          3.52390       -1.62990       -0.85050
C          0.86900        0.22810       -1.26950
C          1.08970        1.17910        0.94050
C         -0.51350        0.15490       -1.09980
C         -0.29290        1.10570        1.11020
C         -3.37360        1.34950       -0.74860
C         -3.10040       -0.92330        0.23320
H          4.97750       -0.25270       -0.07350
H          3.37890        1.02420       -1.48540
H          3.52980        1.69070        0.11820
H         -2.82430        0.88960        1.27390
H          2.57940       -1.11670        1.65740
H          3.79580        0.08790        2.14620
H          4.26580       -1.58490        1.83750
H          4.17780       -2.48140       -0.63010
H          2.49640       -1.96880       -0.68630
H          3.64940       -1.38950       -1.91150
H          1.30840       -0.10990       -2.20350
H          1.70240        1.58550        1.73980
H         -1.12080       -0.24490       -1.90750
H         -0.72900        1.45340        2.04300
H         -3.00120        2.37920       -0.78400
H         -3.30320        0.92940       -1.75820
H         -4.43570        1.38950       -0.48350
H         -4.76390       -1.93050        0.37820
